OPT_V9/My_campus_w_initial_sub_3_active_28_03_16_28/powerflow_results_t2.txt
Pandapower Network Debug Info
==================================================

BUS:
       vm_pu  va_degree      p_mw    q_mvar
0   1.003830  -0.138762 -0.002298 -0.005956
1   1.004937  -0.146587 -0.001061 -0.001057
2   1.004933  -0.146762  0.000004  0.000000
3   1.003507  -0.168829  0.000686 -0.000257
4   0.999116  -0.173775  0.001208 -0.000436
5   1.000499  -0.047980  0.001055 -0.001059
6   1.001418  -0.006942 -0.001057  0.000000
7   0.999865  -0.122237  0.001510 -0.001953
8   1.000175  -0.077625  0.001413 -0.005298
9   0.999903  -0.000261  0.010001  0.008185
10  0.999889  -0.000275  0.013174  0.010200
11  0.999878  -0.000292  0.013858  0.010194
12  0.999855  -0.001026  0.008345  0.005243
13  0.999826  -0.000788  0.012270  0.010775
14  0.999836  -0.000822  0.011005  0.013092
15  0.999949  -0.000248  0.000000  0.000000
16  0.999949  -0.000252  0.000000  0.000000
17  0.999859  -0.001001  0.000000  0.000000
18  0.999859  -0.001006  0.000000  0.000000
19  1.000000   0.000000 -0.034416 -0.026335
20  1.000000   0.000003  0.000000  0.000000
21  1.000000   0.000000 -0.035789 -0.025380
22  1.000000   0.000003  0.000000  0.000000
--------------------------------------------------

LINE:
       p_from_mw   q_from_mvar       p_to_mw     q_to_mvar         pl_mw       ql_mvar  i_from_ka   i_to_ka      i_ka  vm_from_pu  va_from_degree  vm_to_pu  va_to_degree  loading_percent
0   3.440643e-02  2.233490e-02 -3.440478e-02 -2.233362e-02  1.645857e-06  1.283302e-06   0.001579  0.001579  0.001579    1.000000        0.000003  0.999949     -0.000248         0.686463
1   3.577936e-02  2.137952e-02 -3.577469e-02 -2.137588e-02  4.672963e-06  3.643586e-06   0.001604  0.001604  0.001604    1.000000        0.000003  0.999859     -0.001001         0.697511
2   3.703484e-02  2.858036e-02 -3.703315e-02 -2.857904e-02  1.692436e-06  1.319620e-06   0.001801  0.001801  0.001801    0.999949       -0.000248  0.999903     -0.000261         0.782902
3   8.345266e-03  5.243250e-03 -8.345233e-03 -5.243223e-03  3.360099e-08  2.619924e-08   0.000379  0.000379  0.000379    0.999859       -0.001001  0.999855     -0.001026         0.164957
4   2.327521e-02  2.386758e-02 -2.327461e-02 -2.386711e-02  6.078759e-07  4.739708e-07   0.001283  0.001283  0.001283    0.999859       -0.001001  0.999836     -0.000822         0.557977
5  -2.640054e-03 -7.246590e-03  2.667878e-03  7.268285e-03  2.782422e-05  2.169500e-05   0.011133  0.011133  0.011133    0.999949       -0.000252  1.003830     -0.138762         4.840273
6  -2.506963e-09 -1.057137e-03  8.697586e-07  1.057814e-03  8.672516e-07  6.762104e-07   0.001526  0.001526  0.001526    0.999859       -0.001006  1.000499     -0.047980         0.663505
7   1.514301e-03 -1.950231e-03 -1.510181e-03  1.953443e-03  4.120009e-06  3.212439e-06   0.003564  0.003564  0.003564    0.999859       -0.001006  0.999865     -0.122237         1.549721
8   2.629911e-03 -5.727250e-03 -2.623080e-03  5.732576e-03  6.830913e-06  5.326175e-06   0.009098  0.009098  0.009098    0.999859       -0.001006  1.000175     -0.077625         3.955538
9  -2.703199e-02 -2.039396e-02  2.703239e-02  2.039427e-02  3.966230e-07  3.092535e-07   0.001303  0.001303  0.001303    0.999889       -0.000275  0.999903     -0.000261         0.566738
10 -1.385792e-02 -1.019387e-02  1.385806e-02  1.019398e-02  1.447780e-07  1.128858e-07   0.000662  0.000662  0.000662    0.999878       -0.000292  0.999889     -0.000275         0.287930
11  1.227006e-02  1.077551e-02 -1.226993e-02 -1.077541e-02  1.304603e-07  1.017220e-07   0.000629  0.000629  0.000629    0.999836       -0.000822  0.999826     -0.000788         0.273322
12  1.056714e-03  1.056808e-03 -1.055406e-03 -1.055787e-03  1.308435e-06  1.020208e-06   0.002147  0.002147  0.002147    1.004937       -0.146587  1.003830     -0.138762         0.933264
13 -6.855684e-04  2.572022e-04  6.859239e-04 -2.569250e-04  3.554859e-07  2.771782e-07   0.001053  0.001053  0.001053    1.003507       -0.168829  1.003830     -0.138762         0.457907
14 -4.382360e-06 -3.025545e-13  4.382377e-06  1.371574e-11  1.720265e-11  1.341319e-11   0.000006  0.000006  0.000006    1.004933       -0.146762  1.004937     -0.146587         0.002737
15  1.210467e-03 -4.343803e-04 -1.208455e-03  4.359488e-04  2.011703e-06  1.568558e-06   0.001856  0.001856  0.001856    1.000175       -0.077625  0.999116     -0.173775         0.806923
16  1.057136e-03  2.023054e-12 -1.056165e-03  7.564777e-07  9.701985e-07  7.564798e-07   0.001524  0.001524  0.001524    1.001418       -0.006942  1.000499     -0.047980         0.662471
--------------------------------------------------

TRAFO:
    p_hv_mw  q_hv_mvar   p_lv_mw  q_lv_mvar    pl_mw  ql_mvar   i_hv_ka   i_lv_ka  vm_hv_pu  va_hv_degree  vm_lv_pu  va_lv_degree  loading_percent
0 -0.002630  -0.006247  0.002640   0.007247  0.00001    0.001  0.000261  0.011133  0.999949     -0.000248  0.999949     -0.000252         0.077129
1  0.004154  -0.007735 -0.004144   0.008735  0.00001    0.001  0.000338  0.013956  0.999859     -0.001001  0.999859     -0.001006         0.096693
2  0.034416   0.026335 -0.034406  -0.022335  0.00001    0.004  0.000357  0.001579  1.000000      0.000000  1.000000      0.000003         0.108340
3  0.035789   0.025380 -0.035779  -0.021380  0.00001    0.004  0.000362  0.001604  1.000000      0.000000  1.000000      0.000003         0.109687
--------------------------------------------------
